data_image0
_chemical_formula_structural       Mg6Si2O8Mg8Si4O16Mg8Si4O16Mg6Si2O8
_chemical_formula_sum              "Mg28 Si12 O48"
_cell_length_a       6.04789
_cell_length_b       10.3234
_cell_length_c       43.2256
_cell_angle_alpha    90
_cell_angle_beta     90
_cell_angle_gamma    90

_space_group_name_H-M_alt    "P 1"
_space_group_IT_number       1

loop_
  _space_group_symop_operation_xyz
  'x, y, z'

loop_
  _atom_site_type_symbol
  _atom_site_label
  _atom_site_symmetry_multiplicity
  _atom_site_fract_x
  _atom_site_fract_y
  _atom_site_fract_z
  _atom_site_occupancy
  Mg  Mg1       1.0  0.00000  0.00000  0.08333  1.0000
  Mg  Mg2       1.0  0.50000  0.00000  0.08333  1.0000
  Mg  Mg3       1.0  0.50000  0.50000  0.02778  1.0000
  Mg  Mg4       1.0  0.75000  0.27726  0.08426  1.0000
  Mg  Mg5       1.0  0.25000  0.22274  0.02871  1.0000
  Mg  Mg6       1.0  0.25000  0.72274  0.08240  1.0000
  Si  Si1       1.0  0.75000  0.59364  0.07511  1.0000
  Si  Si2       1.0  0.25000  0.40636  0.09156  1.0000
  O   O1        1.0  0.53301  0.66283  0.05855  1.0000
  O   O2        1.0  0.03301  0.33716  0.10812  1.0000
  O   O3        1.0  0.46699  0.33716  0.10812  1.0000
  O   O4        1.0  0.96699  0.66283  0.05855  1.0000
  O   O5        1.0  0.75000  0.44678  0.05865  1.0000
  O   O6        1.0  0.25000  0.55322  0.10802  1.0000
  O   O7        1.0  0.25000  0.40832  0.05378  1.0000
  O   O8        1.0  0.75000  0.09168  0.10934  1.0000
  Mg  Mg7       1.0  0.00000  0.00000  0.19444  1.0000
  Mg  Mg8       1.0  0.00000  0.50000  0.13889  1.0000
  Mg  Mg9       1.0  0.50000  0.00000  0.19444  1.0000
  Mg  Mg10      1.0  0.50000  0.50000  0.13889  1.0000
  Mg  Mg11      1.0  0.75000  0.27726  0.19537  1.0000
  Mg  Mg12      1.0  0.25000  0.22274  0.13982  1.0000
  Mg  Mg13      1.0  0.25000  0.72274  0.19351  1.0000
  Mg  Mg14      1.0  0.75000  0.77726  0.13796  1.0000
  Si  Si3       1.0  0.75000  0.59364  0.18622  1.0000
  Si  Si4       1.0  0.25000  0.90636  0.13066  1.0000
  Si  Si5       1.0  0.25000  0.40636  0.20267  1.0000
  Si  Si6       1.0  0.75000  0.09364  0.14711  1.0000
  O   O9        1.0  0.46699  0.83717  0.11411  1.0000
  O   O10       1.0  0.53301  0.66283  0.16966  1.0000
  O   O11       1.0  0.96699  0.16284  0.16367  1.0000
  O   O12       1.0  0.03301  0.33716  0.21923  1.0000
  O   O13       1.0  0.53301  0.16284  0.16367  1.0000
  O   O14       1.0  0.46699  0.33716  0.21923  1.0000
  O   O15       1.0  0.03301  0.83717  0.11411  1.0000
  O   O16       1.0  0.96699  0.66283  0.16966  1.0000
  O   O17       1.0  0.75000  0.44678  0.16976  1.0000
  O   O18       1.0  0.25000  0.05322  0.11421  1.0000
  O   O19       1.0  0.25000  0.55322  0.21913  1.0000
  O   O20       1.0  0.75000  0.94678  0.16357  1.0000
  O   O21       1.0  0.75000  0.59168  0.11288  1.0000
  O   O22       1.0  0.25000  0.90832  0.16844  1.0000
  O   O23       1.0  0.25000  0.40832  0.16489  1.0000
  O   O24       1.0  0.75000  0.09168  0.22045  1.0000
  Mg  Mg15      1.0  0.00000  0.00000  0.30556  1.0000
  Mg  Mg16      1.0  0.00000  0.50000  0.25000  1.0000
  Mg  Mg17      1.0  0.50000  0.00000  0.30556  1.0000
  Mg  Mg18      1.0  0.50000  0.50000  0.25000  1.0000
  Mg  Mg19      1.0  0.75000  0.27726  0.30649  1.0000
  Mg  Mg20      1.0  0.25000  0.22274  0.25093  1.0000
  Mg  Mg21      1.0  0.25000  0.72274  0.30462  1.0000
  Mg  Mg22      1.0  0.75000  0.77726  0.24907  1.0000
  Si  Si7       1.0  0.75000  0.59364  0.29733  1.0000
  Si  Si8       1.0  0.25000  0.90636  0.24177  1.0000
  Si  Si9       1.0  0.25000  0.40636  0.31378  1.0000
  Si  Si10      1.0  0.75000  0.09364  0.25823  1.0000
  O   O25       1.0  0.46699  0.83717  0.22522  1.0000
  O   O26       1.0  0.53301  0.66283  0.28077  1.0000
  O   O27       1.0  0.96699  0.16284  0.27478  1.0000
  O   O28       1.0  0.03301  0.33716  0.33034  1.0000
  O   O29       1.0  0.53301  0.16284  0.27478  1.0000
  O   O30       1.0  0.46699  0.33716  0.33034  1.0000
  O   O31       1.0  0.03301  0.83717  0.22522  1.0000
  O   O32       1.0  0.96699  0.66283  0.28077  1.0000
  O   O33       1.0  0.75000  0.44678  0.28087  1.0000
  O   O34       1.0  0.25000  0.05322  0.22532  1.0000
  O   O35       1.0  0.25000  0.55322  0.33024  1.0000
  O   O36       1.0  0.75000  0.94678  0.27468  1.0000
  O   O37       1.0  0.75000  0.59168  0.22400  1.0000
  O   O38       1.0  0.25000  0.90832  0.27955  1.0000
  O   O39       1.0  0.25000  0.40832  0.27600  1.0000
  O   O40       1.0  0.75000  0.09168  0.33156  1.0000
  Mg  Mg23      1.0  0.00000  0.50000  0.36111  1.0000
  Mg  Mg24      1.0  0.50000  0.00000  0.41667  1.0000
  Mg  Mg25      1.0  0.50000  0.50000  0.36111  1.0000
  Mg  Mg26      1.0  0.25000  0.22274  0.36204  1.0000
  Mg  Mg27      1.0  0.25000  0.72274  0.41574  1.0000
  Mg  Mg28      1.0  0.75000  0.77726  0.36018  1.0000
  Si  Si11      1.0  0.25000  0.90636  0.35289  1.0000
  Si  Si12      1.0  0.75000  0.09364  0.36934  1.0000
  O   O41       1.0  0.46699  0.83717  0.33633  1.0000
  O   O42       1.0  0.96699  0.16284  0.38589  1.0000
  O   O43       1.0  0.53301  0.16284  0.38589  1.0000
  O   O44       1.0  0.03301  0.83717  0.33633  1.0000
  O   O45       1.0  0.25000  0.05322  0.33643  1.0000
  O   O46       1.0  0.75000  0.94678  0.38579  1.0000
  O   O47       1.0  0.75000  0.59168  0.33511  1.0000
  O   O48       1.0  0.25000  0.90832  0.39066  1.0000
